18
C:\Users\Pete\Desktop\furious-atoms\furiousatoms\tests\test_data\CB_18\CB_18.pdb
C         -5.46000       -0.00000        0.00000
B         -3.90000       -0.00000        0.00000
C         -3.12000       -1.35100        0.00000
B         -1.56000       -1.35100        0.00000
C         -0.78000       -2.70200        0.00000
B          0.78000       -2.70200        0.00000
C         -3.12000        1.35100        0.00000
B         -1.56000        1.35100        0.00000
C         -0.78000       -0.00000        0.00000
B          0.78000       -0.00000        0.00000
C          1.56000       -1.35100        0.00000
B          3.12000       -1.35100        0.00000
C         -0.78000        2.70200        0.00000
B          0.78000        2.70200        0.00000
C          1.56000        1.35100        0.00000
B          3.12000        1.35100        0.00000
C          3.90000       -0.00000        0.00000
B          5.46000       -0.00000        0.00000
